Version 4
SHEET 1 880 680
WIRE -864 208 -944 208
WIRE -752 208 -800 208
WIRE -688 208 -752 208
WIRE -544 208 -608 208
WIRE -512 208 -544 208
WIRE -400 208 -432 208
WIRE 256 208 0 208
WIRE -400 256 -400 208
WIRE -336 256 -400 256
WIRE 80 272 32 272
WIRE 128 272 80 272
WIRE 256 272 256 208
WIRE 256 272 192 272
WIRE -944 288 -944 208
WIRE -752 288 -752 208
WIRE -544 304 -544 208
WIRE 80 304 80 272
WIRE -400 320 -400 256
WIRE -368 320 -400 320
WIRE -256 336 -256 256
WIRE -256 336 -304 336
WIRE -224 336 -256 336
WIRE -112 336 -160 336
WIRE 0 336 0 208
WIRE 0 336 -32 336
WIRE -368 352 -400 352
WIRE 0 352 0 336
WIRE 80 432 80 368
WIRE 128 432 80 432
WIRE 256 432 256 336
WIRE 256 432 192 432
WIRE 400 432 256 432
WIRE -944 448 -944 368
WIRE -752 448 -752 368
WIRE -752 448 -944 448
WIRE -544 448 -544 368
WIRE -544 448 -752 448
WIRE -400 448 -400 352
WIRE -400 448 -544 448
WIRE 0 448 0 432
WIRE 0 448 -400 448
WIRE 80 448 80 432
WIRE 80 448 0 448
WIRE 400 464 400 432
WIRE 432 464 400 464
WIRE 576 480 496 480
WIRE 432 496 400 496
WIRE 32 512 32 272
WIRE 288 512 32 512
WIRE 352 512 288 512
WIRE 400 512 400 496
WIRE 400 512 368 512
WIRE 576 512 576 480
WIRE 288 608 288 512
WIRE 576 608 576 576
WIRE 576 608 288 608
FLAG -944 448 0
SYMBOL voltage -944 272 R0
WINDOW 123 24 124 Left 2
WINDOW 39 0 0 Left 2
SYMATTR InstName V1
SYMATTR Value ""
SYMATTR Value2 AC 1
SYMBOL cap -800 192 R90
WINDOW 0 0 32 VBottom 2
WINDOW 3 32 32 VTop 2
SYMATTR InstName C1
SYMATTR Value 1.8n
SYMBOL res -768 272 R0
SYMATTR InstName R1
SYMATTR Value 0.1
SYMBOL res -592 192 R90
WINDOW 0 0 56 VBottom 2
WINDOW 3 32 56 VTop 2
SYMATTR InstName R2
SYMATTR Value 0.1
SYMBOL cap -560 304 R0
SYMATTR InstName C2
SYMATTR Value 0.5n
SYMBOL Opamps\\opamp -336 272 R0
SYMATTR InstName U1
SYMBOL res -416 192 R90
WINDOW 0 0 56 VBottom 2
WINDOW 3 32 56 VTop 2
SYMATTR InstName R3
SYMATTR Value 1
SYMBOL res -352 272 R270
WINDOW 0 32 56 VTop 2
WINDOW 3 0 56 VBottom 2
SYMATTR InstName R4
SYMATTR Value 10k
SYMBOL res 16 448 R180
WINDOW 0 36 76 Left 2
WINDOW 3 36 40 Left 2
SYMATTR InstName R5
SYMATTR Value 0.1
SYMBOL ind -128 352 R270
WINDOW 0 32 56 VTop 2
WINDOW 3 5 56 VBottom 2
SYMATTR InstName L1
SYMATTR Value 2n
SYMBOL cap -224 352 R270
WINDOW 0 32 32 VTop 2
WINDOW 3 0 32 VBottom 2
SYMATTR InstName C3
SYMATTR Value 2p
SYMBOL diode 128 288 R270
WINDOW 0 32 32 VTop 2
WINDOW 3 0 32 VBottom 2
SYMATTR InstName D1
SYMBOL diode 240 272 R0
SYMATTR InstName D2
SYMBOL diode 128 448 R270
WINDOW 0 32 32 VTop 2
WINDOW 3 0 32 VBottom 2
SYMATTR InstName D3
SYMBOL diode 64 304 R0
SYMATTR InstName D4
SYMBOL Opamps\\opamp 464 416 R0
SYMATTR InstName U2
SYMBOL voltage 384 512 R90
WINDOW 0 -32 56 VBottom 2
WINDOW 3 32 56 VTop 2
WINDOW 123 0 0 Left 2
WINDOW 39 0 0 Left 2
SYMATTR InstName V2
SYMATTR Value 2
SYMBOL LED 560 512 R0
SYMATTR InstName D5
TEXT -872 520 Left 2 !.ac dec 1000 0.5G 3.5G
TEXT -352 400 Left 2 !.lib opamp.sub
