Version 4
SHEET 1 880 680
WIRE -480 192 -560 192
WIRE -368 192 -416 192
WIRE -304 192 -368 192
WIRE -160 192 -224 192
WIRE -560 272 -560 192
WIRE -368 272 -368 192
WIRE -160 288 -160 192
WIRE -560 432 -560 352
WIRE -368 432 -368 352
WIRE -368 432 -560 432
WIRE -160 432 -160 352
WIRE -160 432 -368 432
FLAG -560 432 0
SYMBOL voltage -560 256 R0
SYMATTR InstName V1
SYMBOL cap -416 176 R90
WINDOW 0 0 32 VBottom 2
WINDOW 3 32 32 VTop 2
SYMATTR InstName C1
SYMBOL res -384 256 R0
SYMATTR InstName R1
SYMBOL res -208 176 R90
WINDOW 0 0 56 VBottom 2
WINDOW 3 32 56 VTop 2
SYMATTR InstName R2
SYMBOL cap -176 288 R0
SYMATTR InstName C2
